/*--------------------------------*- C++ -*----------------------------------*\
| =========                 |                                                 |
| \\      /  F ield         | OpenFOAM: The Open Source CFD Toolbox           |
|  \\    /   O peration     | Version:  v1812                                 |
|   \\  /    A nd           | Web:      www.OpenFOAM.com                      |
|    \\/     M anipulation  |                                                 |
\*---------------------------------------------------------------------------*/
FoamFile
{
    version     2.0;
    format      ascii;
    class       volScalarField;
    object      nut;
}
// * * * * * * * * * * * * * * * * * * * * * * * * * * * * * * * * * * * * * //

dimensions      [ 0 2 -1 0 0 0 0 ];

internalField   uniform 1e-5; // 0.0087;

boundaryField
{
    #includeEtc "caseDicts/setConstraintTypes"

    oversetPatch
    {
        type            overset;
        value           $internalField;
    }
    wing
    {
        type            nutkWallFunction;
        value           $internalField;
    }
    sides
    {
        type            calculated;
        value           uniform 0;
    }
}

// ************************************************************************* //
